<?xml version="1.0" encoding="UTF-8"?>

<!-- generated on 2025-11-13 15:35:42 by Eclipse SUMO netedit Version 1.24.0
-->

<additional xmlns:xsi="http://www.w3.org/2001/XMLSchema-instance" xsi:noNamespaceSchemaLocation="http://sumo.dlr.de/xsd/additional_file.xsd">
    <!-- TAZs -->
    <taz id="taz_0" shape="1453.59,1125.62 1468.06,1127.80 1474.33,1128.62 1480.88,1128.34 1484.98,1127.53 1487.43,1125.34 1488.25,1123.98 1495.35,1090.95 1491.26,1091.50 1457.14,1114.70 1453.76,1125.65 1453.59,1125.62" fill="1" name="gaz station" color="246,99,22">
        <tazSource id="253261169" weight="1.00"/>
        <tazSink id="253261169" weight="1.00"/>
    </taz>
    <taz id="taz_1" shape="1323.10,1089.82 1358.52,1096.73 1389.75,1101.23 1392.75,1101.53 1411.96,1008.76 1335.71,1040.59 1324.00,1056.20 1322.50,1071.21 1322.80,1089.82 1323.10,1089.82" fill="1" name="gaz station" color="98,246,40"/>
    <taz id="taz_10" shape="519.97,995.45 537.47,872.93 609.14,883.50 591.31,1008.00 519.31,998.42 519.97,995.12 519.97,995.45" fill="1" color="226,39,246"/>
    <taz id="taz_100" shape="1048.90,1363.46 1095.96,1368.69 1110.60,1263.42 1092.82,1260.98 1078.53,1271.43 1055.52,1297.23 1048.55,1364.16 1048.90,1363.46" fill="1" color="98,246,40"/>
    <taz id="taz_101" shape="1009.16,1358.58 1040.88,1362.77 1048.20,1305.95 1009.16,1358.58 1009.16,1358.58" fill="1" color="98,246,40"/>
    <taz id="taz_102" shape="1101.54,1255.40 1166.73,1263.77 1171.95,1220.89 1138.14,1235.18 1101.19,1255.40 1101.54,1255.40" fill="1" color="246,99,22"/>
    <taz id="taz_103" shape="1175.19,1264.96 1260.39,1274.66 1269.25,1209.70 1270.94,1202.53 1268.41,1198.32 1260.39,1200.85 1181.52,1217.72 1176.03,1265.38 1175.19,1264.96" fill="1" color="98,246,40"/>
    <taz id="taz_104" shape="1291.03,1319.72 1456.67,1343.85 1463.63,1284.46 1361.09,1267.29 1355.99,1264.04 1361.56,1254.30 1369.44,1211.15 1305.41,1209.29 1291.50,1319.26 1291.03,1319.72" fill="1" color="226,39,246">
        <tazSource id="E27" weight="1.00"/>
        <tazSink id="E27" weight="1.00"/>
        <tazSource id="E28" weight="1.00"/>
        <tazSink id="E28" weight="1.00"/>
    </taz>
    <taz id="taz_105" shape="1369.91,1262.19 1466.42,1276.11 1471.98,1220.89 1381.04,1207.90 1369.44,1262.65 1369.91,1262.19" fill="1" color="98,246,40"/>
    <taz id="taz_106" shape="1307.73,1206.97 1370.84,1207.44 1378.26,1158.25 1326.29,1151.29 1309.13,1154.08 1307.27,1206.97 1307.73,1206.97" fill="1" color="98,246,40">
        <tazSource id="E30" weight="1.00"/>
        <tazSink id="E30" weight="1.00"/>
    </taz>
    <taz id="taz_107" shape="1380.95,1198.95 1473.33,1211.20 1474.35,1188.23 1476.90,1171.39 1387.59,1158.63 1379.93,1198.95 1380.95,1198.95" fill="1" color="98,246,40"/>
    <taz id="taz_11" shape="449.63,996.77 453.26,975.97 511.39,982.90 509.40,1004.37 449.30,996.44 449.63,996.77" fill="1" color="98,246,40"/>
    <taz id="taz_12" shape="455.57,961.11 511.39,968.04 529.22,870.95 517.99,865.33 505.77,862.36 469.77,858.73 464.82,920.15 456.23,960.78 455.57,961.11" fill="1" color="98,246,40"/>
    <taz id="taz_13" shape="351.21,979.27 438.07,990.83 446.33,944.59 364.42,935.68 349.89,953.84 351.54,979.27 351.21,979.27" fill="1" color="98,246,40"/>
    <taz id="taz_14" shape="347.25,940.96 344.28,901.33 385.89,899.35 347.25,940.96 347.25,940.96" fill="1" color="98,246,40"/>
    <taz id="taz_15" shape="374.66,923.46 409.34,924.45 419.25,925.44 449.30,931.38 452.27,901.66 453.92,883.83 458.55,856.42 439.72,854.43 374.00,923.79 374.66,923.46" fill="1" color="98,246,40">
        <tazSource id="100080978#2" weight="1.00"/>
        <tazSink id="100080978#2" weight="1.00"/>
    </taz>
    <taz id="taz_16" shape="344.28,889.11 395.14,885.81 425.85,854.10 404.71,852.45 342.96,864.67 344.61,889.77 344.28,889.11" fill="1" color="98,246,40"/>
    <taz id="taz_18" shape="396.00,1092.62 379.56,1052.96 358.24,1002.38 445.55,1014.75 504.11,1022.47 496.39,1075.24 466.14,1069.45 457.78,1071.38 445.55,1073.31 396.00,1092.62" fill="1" color="98,246,40"/>
    <taz id="taz_19" shape="507.98,1075.24 516.34,1024.40 589.71,1034.05 582.63,1084.25 508.62,1073.95 507.98,1075.24" fill="1" color="98,246,40"/>
    <taz id="taz_2" shape="1120.82,1063.49 1186.05,1071.95 1198.88,982.43 1133.65,974.52 1121.10,1063.22 1120.82,1063.49" fill="1" color="218,34,40" name="Ministry of internat affaires"/>
    <taz id="taz_20" shape="340.18,974.74 309.46,976.06 309.79,997.20 314.09,1015.03 335.55,1041.12 358.01,1047.40 369.90,1047.40 351.41,1003.14 343.81,993.24 342.49,989.27 341.50,984.32 340.18,975.73 340.18,974.74" fill="1" color="246,245,39">
        <tazSource id="26242831#2" weight="1.00"/>
        <tazSink id="26242831#2" weight="1.00"/>
        <tazSource id="39169967#0" weight="1.00"/>
        <tazSink id="39169967#0" weight="1.00"/>
        <tazSource id="39169967#1" weight="1.00"/>
        <tazSink id="39169967#1" weight="1.00"/>
    </taz>
    <taz id="taz_21" shape="341.95,857.11 340.20,824.14 359.10,821.51 373.60,824.14 401.29,829.86 397.78,844.36 343.27,856.67 341.95,857.11" fill="1" color="98,246,40"/>
    <taz id="taz_22" shape="338.88,813.15 358.66,808.76 369.65,811.40 375.36,779.31 354.26,775.79 344.15,776.67 336.24,777.99 338.88,813.59 338.88,813.15" fill="1" color="98,246,40"/>
    <taz id="taz_23" shape="381.08,814.47 404.37,818.87 409.21,786.34 386.79,780.63 380.64,814.47 381.08,814.47" fill="1" color="98,246,40"/>
    <taz id="taz_24" shape="333.60,767.88 346.35,764.36 379.32,768.32 400.86,770.96 411.40,774.47 418.88,727.44 345.47,713.81 334.48,760.41 333.16,768.76 333.60,767.88" fill="1" color="98,246,40">
        <tazSource id="33803077#0" weight="1.00"/>
        <tazSink id="33803077#0" weight="1.00"/>
        <tazSource id="33803077#1" weight="1.00"/>
        <tazSink id="33803077#1" weight="1.00"/>
    </taz>
    <taz id="taz_25" shape="418.44,798.21 428.99,799.09 433.38,779.31 420.64,776.67 418.00,798.21 418.44,798.21" fill="1" color="98,246,40"/>
    <taz id="taz_26" shape="411.56,842.04 465.06,846.67 496.43,849.97 509.97,851.95 523.18,856.24 528.80,857.89 543.66,751.55 430.05,730.09 423.45,765.75 445.57,771.04 438.31,811.66 416.84,808.36 411.56,842.04" fill="1" color="226,39,246">
        <tazSource id="-100081119" weight="1.00"/>
        <tazSink id="-100081119" weight="1.00"/>
        <tazSource id="100081119" weight="1.00"/>
        <tazSink id="100081119" weight="1.00"/>
    </taz>
    <taz id="taz_27" shape="630.99,805.70 707.45,815.61 711.70,786.59 638.07,771.01 631.70,805.70 630.99,805.70" fill="1" color="98,246,40"/>
    <taz id="taz_28" shape="541.09,859.50 611.17,870.83 624.62,768.18 554.54,754.73 541.80,859.50 541.09,859.50" fill="1" color="98,246,40"/>
    <taz id="taz_29" shape="622.83,871.89 630.34,818.15 705.40,828.06 697.89,883.30 622.83,871.89" fill="1" color="98,246,40"/>
    <taz id="taz_3" shape="1196.81,1065.20 1230.74,1069.10 1236.14,1051.09 1242.15,1041.78 1245.45,1033.08 1246.65,1021.97 1247.25,1007.26 1249.35,994.35 1265.26,991.04 1275.77,981.14 1276.67,972.73 1210.02,962.52 1196.81,1064.60 1196.81,1065.20" fill="1" color="98,246,40">
        <tazSource id="-100081013" weight="1.00"/>
        <tazSink id="-100081013" weight="1.00"/>
        <tazSource id="-100081032" weight="1.00"/>
        <tazSink id="-100081032" weight="1.00"/>
        <tazSource id="-100081047" weight="1.00"/>
        <tazSink id="-100081047" weight="1.00"/>
        <tazSource id="-100081079" weight="1.00"/>
        <tazSink id="-100081079" weight="1.00"/>
        <tazSource id="-100081094#0" weight="1.00"/>
        <tazSink id="-100081094#0" weight="1.00"/>
        <tazSource id="-100081094#1" weight="1.00"/>
        <tazSink id="-100081094#1" weight="1.00"/>
        <tazSource id="-100081166" weight="1.00"/>
        <tazSink id="-100081166" weight="1.00"/>
        <tazSource id="-1139250387#0" weight="1.00"/>
        <tazSink id="-1139250387#0" weight="1.00"/>
        <tazSource id="-1139250387#1" weight="1.00"/>
        <tazSink id="-1139250387#1" weight="1.00"/>
        <tazSource id="-1139250387#2" weight="1.00"/>
        <tazSink id="-1139250387#2" weight="1.00"/>
        <tazSource id="-1139250388" weight="1.00"/>
        <tazSink id="-1139250388" weight="1.00"/>
        <tazSource id="100081010#2" weight="1.00"/>
        <tazSink id="100081010#2" weight="1.00"/>
        <tazSource id="100081013" weight="1.00"/>
        <tazSink id="100081013" weight="1.00"/>
        <tazSource id="100081032" weight="1.00"/>
        <tazSink id="100081032" weight="1.00"/>
        <tazSource id="100081047" weight="1.00"/>
        <tazSink id="100081047" weight="1.00"/>
        <tazSource id="100081079" weight="1.00"/>
        <tazSink id="100081079" weight="1.00"/>
        <tazSource id="100081094#0" weight="1.00"/>
        <tazSink id="100081094#0" weight="1.00"/>
        <tazSource id="100081094#1" weight="1.00"/>
        <tazSink id="100081094#1" weight="1.00"/>
        <tazSource id="100081166" weight="1.00"/>
        <tazSink id="100081166" weight="1.00"/>
        <tazSource id="1139250387#0" weight="1.00"/>
        <tazSink id="1139250387#0" weight="1.00"/>
        <tazSource id="1139250387#1" weight="1.00"/>
        <tazSink id="1139250387#1" weight="1.00"/>
        <tazSource id="1139250387#2" weight="1.00"/>
        <tazSink id="1139250387#2" weight="1.00"/>
        <tazSource id="1139250388" weight="1.00"/>
        <tazSink id="1139250388" weight="1.00"/>
    </taz>
    <taz id="taz_30" shape="709.37,885.81 713.20,860.32 742.98,863.48 740.04,890.77 709.82,885.81 709.37,885.81" fill="1" color="98,246,40"/>
    <taz id="taz_31" shape="748.62,891.90 752.68,864.16 792.15,869.35 787.64,896.41 748.39,891.68 748.62,891.90" fill="1" color="98,246,40"/>
    <taz id="taz_32" shape="794.86,897.09 863.20,906.56 870.65,860.10 802.75,850.62 795.31,896.86 794.86,897.09" fill="1" color="98,246,40"/>
    <taz id="taz_33" shape="876.74,908.37 882.15,866.86 963.58,878.14 957.49,919.65 876.74,907.92 876.74,908.37" fill="1" color="98,246,40"/>
    <taz id="taz_34" shape="867.94,968.37 875.83,916.71 956.14,927.54 949.59,979.87 867.71,968.14 867.94,968.37" fill="1" color="98,246,40"/>
    <taz id="taz_35" shape="1042.78,992.12 1049.33,940.81 1124.66,951.18 1119.20,1001.40 1042.51,992.12 1042.78,992.12" fill="1" color="98,246,40"/>
    <taz id="taz_36" shape="956.81,980.39 1034.86,990.49 1040.60,939.72 964.99,929.35 957.35,980.93 956.81,980.39" fill="1" color="98,246,40"/>
    <taz id="taz_37" shape="965.81,920.34 972.36,878.31 1047.69,888.95 1040.32,930.44 965.81,920.34" fill="1" color="98,246,40"/>
    <taz id="taz_38" shape="1138.03,943.27 1143.22,902.33 1209.81,910.52 1204.36,952.55 1137.49,943.27 1138.03,943.27" fill="1" color="218,34,40"/>
    <taz id="taz_39" shape="1143.49,891.93 1166.01,894.33 1171.71,857.70 1148.60,855.00 1143.49,892.23 1143.49,891.93" fill="1" color="98,246,40"/>
    <taz id="taz_4" shape="1034.09,1054.69 1040.40,1003.65 1117.85,1013.56 1110.35,1066.10 1034.09,1054.99 1034.09,1054.69" fill="1" color="98,246,40"/>
    <taz id="taz_40" shape="1168.11,894.63 1174.12,857.70 1215.85,863.71 1210.44,899.13 1167.81,894.33 1168.11,894.63" fill="1" color="98,246,40"/>
    <taz id="taz_41" shape="1213.14,952.27 1220.35,907.54 1225.45,867.31 1312.22,879.02 1302.61,965.78 1213.44,952.27 1213.14,952.27" fill="1" color="98,189,239"/>
    <taz id="taz_42" shape="1300.28,1043.61 1309.71,976.62 1358.34,980.59 1352.88,1015.07 1300.28,1043.11 1300.28,1043.61" fill="1" color="98,246,40"/>
    <taz id="taz_43" shape="1420.33,1053.66 1457.98,1060.75 1478.12,993.45 1435.80,989.35 1420.33,1053.66" fill="1" color="98,246,40">
        <tazSource id="-100080968#0" weight="1.00"/>
        <tazSink id="-100080968#0" weight="1.00"/>
        <tazSource id="-100080968#1" weight="1.00"/>
        <tazSink id="-100080968#1" weight="1.00"/>
        <tazSource id="-100080968#2" weight="1.00"/>
        <tazSink id="-100080968#2" weight="1.00"/>
        <tazSource id="-100081092" weight="1.00"/>
        <tazSink id="-100081092" weight="1.00"/>
        <tazSource id="100080968#0" weight="1.00"/>
        <tazSink id="100080968#0" weight="1.00"/>
        <tazSource id="100080968#1" weight="1.00"/>
        <tazSink id="100080968#1" weight="1.00"/>
        <tazSource id="100080968#2" weight="1.00"/>
        <tazSink id="100080968#2" weight="1.00"/>
        <tazSource id="100081092" weight="1.00"/>
        <tazSink id="100081092" weight="1.00"/>
    </taz>
    <taz id="taz_44" shape="1463.41,1075.74 1483.94,1077.24 1504.47,997.64 1482.94,997.14 1457.91,1075.74 1463.92,1076.24 1463.41,1075.74" fill="1" color="98,246,40"/>
    <taz id="taz_45" shape="499.67,1118.64 538.41,1123.69 578.83,1129.87 581.64,1095.06 506.41,1082.71 500.24,1119.20 499.67,1118.64" fill="1" color="98,246,40"/>
    <taz id="taz_46" shape="373.35,1259.56 485.08,1301.10 510.99,1310.21 513.92,1309.90 515.92,1306.60 520.51,1292.64 534.48,1255.06 553.01,1205.10 532.80,1199.48 528.74,1199.16 525.43,1198.38 522.95,1198.45 520.45,1197.80 468.23,1193.87 463.72,1193.84 460.09,1193.54 457.01,1192.19 431.74,1189.38 427.05,1188.88 424.20,1188.11 420.51,1188.26 395.81,1183.20 395.25,1216.89 390.20,1228.12 373.35,1259.56" fill="1" color="98,246,40">
        <tazSource id="-33803027#1" weight="1.00"/>
        <tazSink id="-33803027#1" weight="1.00"/>
        <tazSource id="-33803027#2" weight="1.00"/>
        <tazSink id="-33803027#2" weight="1.00"/>
        <tazSource id="306442989#3" weight="1.00"/>
        <tazSink id="306442989#3" weight="1.00"/>
    </taz>
    <taz id="taz_48" shape="397.72,1172.91 399.58,1150.64 400.97,1130.22 399.11,1114.45 398.19,1099.60 443.66,1081.97 453.86,1078.72 463.14,1078.72 469.40,1079.11 473.12,1079.46 479.04,1079.81 483.81,1079.76 488.88,1079.84 494.81,1081.00 488.08,1126.88 495.62,1127.90 529.96,1133.47 522.07,1187.29 397.72,1172.91" fill="1" color="98,246,40"/>
    <taz id="taz_49" shape="561.68,1195.17 564.77,1195.49 585.42,1193.70 583.64,1185.57 576.16,1173.21 573.55,1166.55 574.37,1149.80 577.78,1142.32 577.29,1139.71 564.93,1137.11 559.57,1163.46 561.68,1195.17 561.68,1195.17" fill="1" color="246,245,39">
        <tazSource id="-1216169871" weight="1.00"/>
        <tazSink id="-1216169871" weight="1.00"/>
        <tazSource id="39170210#1" weight="1.00"/>
        <tazSink id="39170210#1" weight="1.00"/>
        <tazSource id="39170210#2" weight="1.00"/>
        <tazSink id="39170210#2" weight="1.00"/>
    </taz>
    <taz id="taz_5" shape="777.40,1015.66 844.95,1025.27 861.46,916.29 794.21,906.98 779.20,1015.66 777.40,1015.66" fill="1" color="226,39,246"/>
    <taz id="taz_51" shape="525.57,1316.78 585.89,1341.84 617.44,1352.97 632.75,1359.01 611.87,1287.55 587.74,1292.66 582.64,1291.73 539.49,1275.03 525.57,1316.78" fill="1" color="98,246,40">
        <tazSource id="-109431718" weight="1.00"/>
        <tazSink id="-109431718" weight="1.00"/>
        <tazSource id="109431718" weight="1.00"/>
        <tazSink id="109431718" weight="1.00"/>
    </taz>
    <taz id="taz_52" shape="544.59,1265.28 585.89,1280.13 590.99,1280.13 608.16,1275.95 587.74,1203.57 565.47,1204.50 544.13,1264.82 544.59,1265.28" fill="1" color="98,246,40"/>
    <taz id="taz_53" shape="531.60,1190.78 560.38,1195.49 558.43,1164.11 563.80,1137.27 538.75,1132.88 531.76,1190.78 531.60,1190.78" fill="1" color="98,246,40"/>
    <taz id="taz_54" shape="596.76,1193.37 634.47,1188.92 644.16,1188.92 670.35,1188.40 659.62,1145.71 642.85,1148.06 648.35,1099.09 652.54,1097.51 672.98,1101.44 676.64,1062.68 623.73,1056.66 602.78,1046.18 595.97,1090.18 589.95,1134.71 589.95,1159.85 594.14,1184.73 596.76,1193.37" fill="1" color="98,246,40">
        <tazSource id="100081107#1" weight="1.00"/>
        <tazSink id="100081107#1" weight="1.00"/>
        <tazSource id="100081107#2" weight="1.00"/>
        <tazSink id="100081107#2" weight="1.00"/>
        <tazSource id="545291183#1" weight="1.00"/>
        <tazSink id="545291183#1" weight="1.00"/>
        <tazSource id="94346562#0" weight="1.00"/>
        <tazSink id="94346562#0" weight="1.00"/>
        <tazSource id="94346562#1" weight="1.00"/>
        <tazSink id="94346562#1" weight="1.00"/>
        <tazSource id="E14" weight="1.00"/>
        <tazSink id="E14" weight="1.00"/>
    </taz>
    <taz id="taz_55" shape="650.71,1141.52 654.90,1106.16 676.64,1109.56 684.50,1136.80 650.45,1140.47 650.71,1141.52" fill="1" color="98,246,40"/>
    <taz id="taz_56" shape="689.47,1134.97 755.74,1141.78 759.66,1113.23 682.40,1102.49 681.88,1108.78 689.47,1134.71 689.47,1134.97" fill="1" color="98,246,40"/>
    <taz id="taz_57" shape="680.04,1095.94 760.45,1105.90 763.33,1082.59 682.93,1072.90 680.31,1096.21 680.04,1095.94" fill="1" color="98,246,40"/>
    <taz id="taz_58" shape="678.74,1188.40 691.57,1191.80 695.24,1193.64 685.02,1142.83 666.69,1146.23 676.90,1187.35 679.00,1188.40 678.74,1188.40" fill="1" color="98,246,40"/>
    <taz id="taz_59" shape="696.02,1163.78 725.35,1166.14 727.71,1147.80 691.04,1143.61 696.02,1163.25 696.02,1163.78" fill="1" color="98,246,40"/>
    <taz id="taz_6" shape="947.33,1042.68 1028.09,1054.39 1034.09,1002.15 954.83,991.95 947.93,1042.68 947.33,1042.68" fill="1" color="98,246,40"/>
    <taz id="taz_60" shape="697.59,1171.64 702.57,1196.25 705.97,1202.02 710.95,1204.64 745.00,1208.83 754.69,1150.16 734.52,1148.33 729.81,1173.21 697.59,1171.64 697.59,1171.64" fill="1" color="98,246,40">
        <tazSource id="E16" weight="1.00"/>
        <tazSink id="E16" weight="1.00"/>
    </taz>
    <taz id="taz_61" shape="767.00,1107.47 770.93,1083.90 774.85,1081.80 833.26,1089.92 839.02,1093.85 840.59,1098.30 836.93,1116.90 767.26,1107.47 767.00,1107.47" fill="1" color="98,246,40"/>
    <taz id="taz_62" shape="761.50,1141.52 767.00,1111.13 836.93,1120.04 832.21,1152.25 760.97,1141.25 761.50,1141.52" fill="1" color="98,246,40">
        <tazSource id="-100081173#1" weight="1.00"/>
        <tazSink id="-100081173#1" weight="1.00"/>
        <tazSource id="100081173#1" weight="1.00"/>
        <tazSink id="100081173#1" weight="1.00"/>
    </taz>
    <taz id="taz_63" shape="751.02,1208.56 763.33,1144.40 831.43,1154.87 823.83,1217.99 751.28,1208.83 751.02,1208.56" fill="1" color="98,246,40"/>
    <taz id="taz_64" shape="745.85,1272.93 751.08,1216.50 822.75,1226.02 813.70,1279.59 747.75,1275.07 745.85,1273.16 745.85,1272.93" fill="1" color="98,246,40"/>
    <taz id="taz_65" shape="696.80,1254.83 740.37,1261.26 744.42,1216.26 704.65,1209.83 701.80,1205.54 696.08,1254.12 696.56,1255.07 696.80,1254.83" fill="1" color="98,246,40">
        <tazSource id="33099117#1" weight="1.00"/>
        <tazSink id="33099117#1" weight="1.00"/>
    </taz>
    <taz id="taz_66" shape="598.23,1200.07 615.13,1250.78 650.84,1238.64 655.84,1237.45 661.32,1237.45 666.32,1237.45 690.84,1241.74 695.61,1202.69 691.80,1198.16 685.13,1196.02 678.94,1194.83 668.46,1194.59 636.32,1195.54 597.51,1200.07 598.23,1200.07" fill="1" color="98,246,40">
        <tazSource id="-94346491#0" weight="1.00"/>
        <tazSink id="-94346491#0" weight="1.00"/>
        <tazSource id="94346491#0" weight="1.00"/>
        <tazSink id="94346491#0" weight="1.00"/>
    </taz>
    <taz id="taz_67" shape="663.12,1403.84 792.76,1420.69 812.15,1287.48 738.66,1281.86 738.15,1268.08 690.17,1259.92 689.66,1251.24 661.08,1247.16 650.87,1249.71 619.23,1259.92 663.12,1404.35 663.12,1403.84" fill="1" color="98,246,40">
        <tazSource id="41874833#0" weight="1.00"/>
        <tazSink id="41874833#0" weight="1.00"/>
        <tazSource id="41874835#0" weight="1.00"/>
        <tazSink id="41874835#0" weight="1.00"/>
        <tazSource id="94210228#5" weight="1.00"/>
        <tazSink id="94210228#5" weight="1.00"/>
    </taz>
    <taz id="taz_68" shape="835.70,1218.72 917.61,1229.67 934.03,1102.76 851.65,1094.43 835.70,1218.48 835.70,1218.72" fill="1" color="226,39,246"/>
    <taz id="taz_69" shape="925.94,1231.10 980.22,1238.00 991.89,1151.10 996.89,1110.38 940.70,1104.19 925.70,1230.86 925.94,1231.10" fill="1" color="98,246,40"/>
    <taz id="taz_7" shape="859.36,1028.57 941.92,1040.88 948.53,991.35 865.36,980.54 859.36,1028.87 859.36,1028.57" fill="1" color="226,39,246"/>
    <taz id="taz_70" shape="999.51,1148.48 1003.32,1111.81 1073.08,1121.33 1068.80,1157.76 999.51,1148.48" fill="1" color="98,246,40"/>
    <taz id="taz_71" shape="1075.70,1158.71 1124.75,1165.38 1130.23,1130.14 1079.51,1123.71 1075.46,1158.95 1075.70,1158.71" fill="1" color="98,246,40"/>
    <taz id="taz_72" shape="1122.61,1223.95 1175.23,1201.81 1183.87,1129.26 1137.13,1123.00 1122.61,1223.95" fill="1" color="98,246,40"/>
    <taz id="taz_73" shape="987.19,1238.83 1057.11,1248.14 1068.36,1164.37 998.67,1154.63 987.41,1238.61 987.19,1238.83" fill="1" color="98,246,40">
        <tazSource id="-1097930097#0" weight="1.00"/>
        <tazSink id="-1097930097#0" weight="1.00"/>
        <tazSource id="-1097930097#1" weight="1.00"/>
        <tazSink id="-1097930097#1" weight="1.00"/>
        <tazSource id="-1097930098" weight="1.00"/>
        <tazSink id="-1097930098" weight="1.00"/>
        <tazSource id="-1097930099" weight="1.00"/>
        <tazSink id="-1097930099" weight="1.00"/>
        <tazSource id="-1097930100#0" weight="1.00"/>
        <tazSink id="-1097930100#0" weight="1.00"/>
        <tazSource id="-1097930100#1" weight="1.00"/>
        <tazSink id="-1097930100#1" weight="1.00"/>
        <tazSource id="-1097930100#2" weight="1.00"/>
        <tazSink id="-1097930100#2" weight="1.00"/>
        <tazSource id="-1139250392" weight="1.00"/>
        <tazSink id="-1139250392" weight="1.00"/>
        <tazSource id="-1216169869" weight="1.00"/>
        <tazSink id="-1216169869" weight="1.00"/>
        <tazSource id="1097930097#0" weight="1.00"/>
        <tazSink id="1097930097#0" weight="1.00"/>
        <tazSource id="1097930097#1" weight="1.00"/>
        <tazSink id="1097930097#1" weight="1.00"/>
        <tazSource id="1097930098" weight="1.00"/>
        <tazSink id="1097930098" weight="1.00"/>
        <tazSource id="1097930099" weight="1.00"/>
        <tazSink id="1097930099" weight="1.00"/>
        <tazSource id="1097930100#0" weight="1.00"/>
        <tazSink id="1097930100#0" weight="1.00"/>
        <tazSource id="1097930100#1" weight="1.00"/>
        <tazSink id="1097930100#1" weight="1.00"/>
        <tazSource id="1097930100#2" weight="1.00"/>
        <tazSink id="1097930100#2" weight="1.00"/>
        <tazSource id="1139250392" weight="1.00"/>
        <tazSink id="1139250392" weight="1.00"/>
        <tazSource id="1216169869" weight="1.00"/>
        <tazSink id="1216169869" weight="1.00"/>
    </taz>
    <taz id="taz_74" shape="1064.51,1248.44 1071.98,1249.23 1114.88,1225.81 1123.54,1173.08 1074.94,1165.99 1064.70,1248.25 1064.51,1248.44" fill="1" color="98,246,40"/>
    <taz id="taz_75" shape="1182.57,1208.10 1191.82,1129.79 1241.21,1135.69 1246.33,1137.86 1266.59,1190.59 1253.21,1192.36 1228.81,1198.07 1197.13,1205.35 1182.57,1208.10" fill="1" color="98,246,40"/>
    <taz id="taz_76" shape="973.84,1353.48 1000.46,1356.65 1057.50,1281.23 1061.62,1271.08 1059.40,1262.21 1054.97,1257.46 1048.94,1255.24 986.20,1246.37 973.84,1354.11 973.84,1353.48" fill="1" color="98,189,239"/>
    <taz id="taz_77" shape="938.45,1348.15 967.77,1352.48 980.76,1244.65 924.48,1238.16 919.36,1267.28 949.47,1272.00 938.25,1347.96 938.45,1348.15" fill="1" color="98,246,40">
        <tazSource id="-100203077#0" weight="1.00"/>
        <tazSink id="-100203077#0" weight="1.00"/>
        <tazSource id="-100203077#1" weight="1.00"/>
        <tazSink id="-100203077#1" weight="1.00"/>
        <tazSource id="32956404#0" weight="1.00"/>
        <tazSink id="32956404#0" weight="1.00"/>
    </taz>
    <taz id="taz_78" shape="915.43,1290.30 917.59,1273.77 941.60,1277.31 939.43,1294.43 915.62,1290.50 915.43,1290.30" fill="1" color="226,39,246"/>
    <taz id="taz_79" shape="907.75,1344.61 931.96,1348.15 938.84,1299.16 914.25,1295.81 907.95,1344.81 907.75,1344.61" fill="1" color="98,246,40"/>
    <taz id="taz_8" shape="694.83,1004.34 769.95,1014.94 773.34,967.58 776.27,950.66 783.26,909.15 709.73,897.65 695.07,1004.12 694.83,1004.34" fill="1" color="98,246,40"/>
    <taz id="taz_80" shape="826.09,1277.70 873.91,1284.00 880.99,1231.47 834.36,1225.76 826.09,1277.70" fill="1" color="98,246,40"/>
    <taz id="taz_81" shape="879.42,1285.19 882.17,1264.92 911.89,1268.46 910.11,1289.12 879.42,1285.19" fill="1" color="98,246,40"/>
    <taz id="taz_82" shape="884.53,1258.23 887.29,1232.65 917.99,1237.17 914.05,1261.97 884.14,1258.82 884.53,1258.23" fill="1" color="98,246,40"/>
    <taz id="taz_83" shape="818.42,1332.61 902.24,1343.63 908.54,1295.42 824.91,1284.20 818.81,1332.61 818.42,1332.61" fill="1" color="98,246,40"/>
    <taz id="taz_84" shape="809.37,1400.30 891.81,1410.73 901.26,1350.32 818.22,1339.30 809.37,1400.30" fill="1" color="98,246,40"/>
    <taz id="taz_85" shape="898.11,1410.92 958.72,1419.58 966.98,1359.17 907.16,1351.30 898.11,1410.73 898.11,1410.92" fill="1" color="98,246,40"/>
    <taz id="taz_86" shape="964.82,1419.98 970.13,1420.17 996.70,1363.89 995.32,1362.71 973.48,1359.57 965.01,1419.58 964.82,1419.98" fill="1" color="98,246,40"/>
    <taz id="taz_87" shape="792.84,1529.59 873.01,1539.35 889.40,1419.43 808.87,1408.28 792.84,1530.29 792.84,1529.59" fill="1" color="98,246,40"/>
    <taz id="taz_88" shape="879.99,1539.35 931.58,1546.32 952.84,1466.15 956.68,1427.45 897.77,1420.13 880.34,1539.35 879.99,1539.35" fill="1" color="98,246,40"/>
    <taz id="taz_89" shape="943.12,1536.77 956.54,1549.43 974.94,1554.80 1008.69,1560.16 1031.70,1437.46 976.48,1429.02 962.67,1463.15 943.88,1537.54 943.12,1536.77" fill="1" color="98,246,40"/>
    <taz id="taz_9" shape="606.65,994.87 681.31,1003.44 695.07,895.62 621.08,885.70 606.87,994.87 606.65,994.87" fill="1" color="218,34,40"/>
    <taz id="taz_90" shape="1018.28,1561.70 1071.96,1569.75 1081.16,1505.33 1086.91,1445.51 1039.75,1440.14 1017.51,1561.70 1018.28,1561.70" fill="1" color="98,246,40"/>
    <taz id="taz_91" shape="1095.35,1437.84 1141.75,1444.36 1148.65,1384.54 1103.02,1378.02 1096.12,1438.61 1095.35,1437.84" fill="1" color="98,246,40">
        <tazSource id="-1139250389" weight="1.00"/>
        <tazSink id="-1139250389" weight="1.00"/>
        <tazSource id="1139250389" weight="1.00"/>
        <tazSink id="1139250389" weight="1.00"/>
    </taz>
    <taz id="taz_92" shape="1040.90,1429.40 1087.68,1435.92 1094.97,1378.02 1047.80,1372.27 1040.52,1429.40 1040.90,1429.40" fill="1" color="98,246,40"/>
    <taz id="taz_93" shape="978.40,1421.35 1032.08,1429.79 1040.13,1370.35 1005.24,1365.75 978.01,1422.12 978.40,1421.35" fill="1" color="98,246,40"/>
    <taz id="taz_94" shape="1085.16,1532.54 1113.99,1533.17 1115.90,1470.74 1092.45,1469.16 1085.16,1533.17 1085.16,1532.54" fill="1" color="98,246,40">
        <tazSource id="E26" weight="1.00"/>
        <tazSink id="E26" weight="1.00"/>
    </taz>
    <taz id="taz_95" shape="1079.45,1573.42 1123.82,1578.17 1140.30,1451.41 1094.03,1445.07 1092.76,1467.25 1118.43,1469.79 1115.26,1535.39 1084.84,1534.75 1078.82,1573.73 1079.45,1573.42" fill="1" color="98,246,40">
        <tazSource id="94346268#0" weight="1.00"/>
        <tazSink id="94346268#0" weight="1.00"/>
        <tazSource id="E26" weight="1.00"/>
        <tazSink id="E26" weight="1.00"/>
    </taz>
    <taz id="taz_96" shape="1132.91,1580.99 1159.75,1583.43 1184.50,1389.26 1158.36,1385.08 1133.26,1581.34 1132.91,1580.99" fill="1" color="98,246,40">
        <tazSource id="-100202940" weight="1.00"/>
        <tazSink id="-100202940" weight="1.00"/>
        <tazSource id="100202940" weight="1.00"/>
        <tazSink id="100202940" weight="1.00"/>
    </taz>
    <taz id="taz_97" shape="1161.84,1584.47 1214.13,1590.40 1243.07,1394.49 1187.29,1389.26 1162.89,1584.13 1161.84,1584.47" fill="1" color="98,246,40"/>
    <taz id="taz_98" shape="1161.50,1377.06 1167.07,1331.74 1219.71,1338.71 1209.25,1382.99 1161.15,1377.06 1161.50,1377.06" fill="1" color="98,246,40">
        <tazSource id="-1139250390" weight="1.00"/>
        <tazSink id="-1139250390" weight="1.00"/>
        <tazSource id="1139250390" weight="1.00"/>
        <tazSink id="1139250390" weight="1.00"/>
    </taz>
    <taz id="taz_99" shape="1212.04,1382.64 1243.42,1386.12 1258.41,1282.94 1174.74,1272.48 1168.47,1329.30 1223.90,1337.67 1213.09,1382.64 1212.04,1382.64" fill="1" color="98,246,40"/>
</additional>
