<?xml version="1.0" encoding="UTF-8"?>

<!-- generated on 2025-11-13 15:29:23 by Eclipse SUMO netedit Version 1.24.0
<neteditConfiguration xmlns:xsi="http://www.w3.org/2001/XMLSchema-instance" xsi:noNamespaceSchemaLocation="http://sumo.dlr.de/xsd/neteditConfiguration.xsd">

    <input>
        <sumo-net-file value="C:\Users\ela\Desktop\TSYP13\RAS CHALLENGE\after cleaning\finished_map_cleaning.net.xml"/>
    </input>

    <output>
        <output-file value="C:\Users\ela\Desktop\TSYP13\RAS CHALLENGE\after cleaning\finished_map_cleaning.net.xml"/>
    </output>

    <processing>
        <geometry.min-radius.fix.railways value="false"/>
        <geometry.avoid-overlap value="false"/>
        <geometry.max-grade.fix value="false"/>
        <offset.disable-normalization value="true"/>
        <lefthand value="0"/>
    </processing>

    <junctions>
        <no-turnarounds value="true"/>
        <junctions.corner-detail value="5"/>
        <junctions.limit-turn-speed value="5.50"/>
        <rectangular-lane-cut value="0"/>
    </junctions>

    <pedestrian>
        <walkingareas value="0"/>
    </pedestrian>
</neteditConfiguration>
-->

<net version="1.20" junctionCornerDetail="5" limitTurnSpeed="5.50" avoidOverlap="0" xmlns:xsi="http://www.w3.org/2001/XMLSchema-instance" xsi:noNamespaceSchemaLocation="http://sumo.dlr.de/xsd/net_file.xsd">

    <location netOffset="-604541.15,-4072246.27" convBoundary="0.00,306.70,1656.81,3444.64" origBoundary="10.171837,36.790182,10.193613,36.821230" projParameter="+proj=utm +zone=32 +ellps=WGS84 +datum=WGS84 +units=m +no_defs"/>

    <type id="highway.footway" priority="1" numLanes="1" speed="2.78" allow="pedestrian" oneway="1" width="2.00"/>
    <type id="highway.motorway" priority="14" numLanes="2" speed="39.44" allow="private emergency authority army vip passenger hov taxi bus coach delivery truck trailer motorcycle evehicle custom1 custom2" oneway="1"/>
    <type id="highway.pedestrian" priority="1" numLanes="1" speed="2.78" allow="pedestrian" oneway="1" width="2.00"/>
    <type id="highway.primary" priority="12" numLanes="2" speed="27.78" disallow="tram rail_urban rail rail_electric rail_fast ship container cable_car subway aircraft wheelchair scooter drone" oneway="0"/>
    <type id="highway.residential" priority="3" numLanes="1" speed="13.89" disallow="tram rail_urban rail rail_electric rail_fast ship container cable_car subway aircraft wheelchair scooter drone" oneway="0"/>
    <type id="highway.secondary" priority="11" numLanes="1" speed="27.78" disallow="tram rail_urban rail rail_electric rail_fast ship container cable_car subway aircraft wheelchair scooter drone" oneway="0"/>
    <type id="highway.service" priority="1" numLanes="1" speed="5.56" allow="pedestrian delivery bicycle" oneway="0"/>
    <type id="highway.tertiary" priority="10" numLanes="1" speed="22.22" disallow="tram rail_urban rail rail_electric rail_fast ship container cable_car subway aircraft wheelchair scooter drone" oneway="0"/>
    <type id="highway.tertiary_link" priority="5" numLanes="1" speed="22.22" disallow="tram rail_urban rail rail_electric rail_fast ship container cable_car subway aircraft wheelchair scooter drone" oneway="0"/>
    <type id="highway.unclassified" priority="4" numLanes="1" speed="13.89" disallow="tram rail_urban rail rail_electric rail_fast ship container cable_car subway aircraft wheelchair scooter drone" oneway="0"/>
    <type id="railway.light_rail" priority="19" numLanes="1" speed="27.78" allow="rail_urban" oneway="1"/>

    <edge id=":10041366841_0" function="internal">
        <lane id=":10041366841_0_0" index="0" disallow="tram rail_urban rail rail_electric rail_fast ship container cable_car subway aircraft wheelchair scooter drone" speed="18.05" length="0.30" shape="1474.66,1242.76 1474.70,1242.46"/>
        <lane id=":10041366841_0_1" index="1" disallow="tram rail_urban rail rail_electric rail_fast ship container cable_car subway aircraft wheelchair scooter drone" speed="18.05" length="0.30" shape="1477.84,1243.12 1477.88,1242.82"/>
        <lane id=":10041366841_0_2" index="2" disallow="tram rail_urban rail rail_electric rail_fast ship container cable_car subway aircraft wheelchair scooter drone" speed="18.05" length="0.30" shape="1481.02,1243.48 1481.06,1243.18"/>
    </edge>
    <edge id=":10044284396_0" function="internal">
        <lane id=":10044284396_0_0" index="0" disallow="tram rail_urban rail rail_electric rail_fast ship container cable_car subway aircraft wheelchair scooter drone" speed="27.78" length="0.30" width="4.00" shape="1262.57,1194.78 1262.27,1194.82"/>
    </edge>
    <edge id=":10044284397_0" function="internal">
        <lane id=":10044284397_0_0" index="0" disallow="tram rail_urban rail rail_electric rail_fast ship container cable_car subway aircraft wheelchair scooter drone" speed="27.78" length="0.30" width="4.00" shape="1187.76,1210.54 1187.47,1210.62"/>
    </edge>
    <edge id=":10044284398_0" function="internal">
        <lane id=":10044284398_0_0" index="0" disallow="tram rail_urban rail rail_electric rail_fast ship container cable_car subway aircraft wheelchair scooter drone" speed="27.78" length="0.30" shape="1294.46,1200.56 1294.42,1200.85"/>
        <lane id=":10044284398_0_1" index="1" disallow="tram rail_urban rail rail_electric rail_fast ship container cable_car subway aircraft wheelchair scooter drone" speed="27.78" length="0.30" shape="1291.30,1200.07 1291.26,1200.36"/>
    </edge>
    <edge id=":10044284399_0" function="internal">
        <lane id=":10044284399_0_0" index="0" disallow="tram rail_urban rail rail_electric rail_fast ship container cable_car subway aircraft wheelchair scooter drone" speed="27.78" length="0.10" shape="1284.75,1265.52 1284.75,1265.52"/>
        <lane id=":10044284399_0_1" index="1" disallow="tram rail_urban rail rail_electric rail_fast ship container cable_car subway aircraft wheelchair scooter drone" speed="27.78" length="0.10" shape="1281.59,1265.06 1281.59,1265.06"/>
    </edge>
    <edge id=":10044284400_0" function="internal">
        <lane id=":10044284400_0_0" index="0" disallow="tram rail_urban rail rail_electric rail_fast ship container cable_car subway aircraft wheelchair scooter drone" speed="27.78" length="0.10" shape="1273.14,1264.23 1273.14,1264.23"/>
        <lane id=":10044284400_0_1" index="1" disallow="tram rail_urban rail rail_electric rail_fast ship container cable_car subway aircraft wheelchair scooter drone" speed="27.78" length="0.10" shape="1276.32,1264.65 1276.32,1264.65"/>
    </edge>
    <edge id=":10044284401_0" function="internal">
        <lane id=":10044284401_0_0" index="0" disallow="tram rail_urban rail rail_electric rail_fast ship container cable_car subway aircraft wheelchair scooter drone" speed="6.52" length="8.99" shape="1390.78,1154.11 1388.33,1154.06 1386.45,1154.81 1385.12,1156.36 1384.36,1158.71"/>
    </edge>
    <edge id=":10044284401_1" function="internal">
        <lane id=":10044284401_1_0" index="0" disallow="tram rail_urban rail rail_electric rail_fast ship container cable_car subway aircraft wheelchair scooter drone" speed="27.78" length="11.11" shape="1390.78,1154.11 1379.82,1152.33"/>
        <lane id=":10044284401_1_1" index="1" disallow="tram rail_urban rail rail_electric rail_fast ship container cable_car subway aircraft wheelchair scooter drone" speed="27.78" length="11.11" shape="1391.30,1150.95 1380.33,1149.17"/>
        <lane id=":10044284401_1_2" index="2" disallow="tram rail_urban rail rail_electric rail_fast ship container cable_car subway aircraft wheelchair scooter drone" speed="27.78" length="11.11" shape="1391.81,1147.79 1380.84,1146.01"/>
    </edge>
    <edge id=":10044284402_0" function="internal">
        <lane id=":10044284402_0_0" index="0" disallow="tram rail_urban rail rail_electric rail_fast ship container cable_car subway aircraft wheelchair scooter drone" speed="27.78" length="0.30" shape="1388.59,1118.48 1388.88,1118.52"/>
        <lane id=":10044284402_0_1" index="1" disallow="tram rail_urban rail rail_electric rail_fast ship container cable_car subway aircraft wheelchair scooter drone" speed="27.78" length="0.30" shape="1388.13,1121.65 1388.43,1121.69"/>
        <lane id=":10044284402_0_2" index="2" disallow="tram rail_urban rail rail_electric rail_fast ship container cable_car subway aircraft wheelchair scooter drone" speed="27.78" length="0.30" shape="1387.68,1124.82 1387.97,1124.86"/>
    </edge>
    <edge id=":10044284403_0" function="internal">
        <lane id=":10044284403_0_0" index="0" disallow="tram rail_urban rail rail_electric rail_fast ship container cable_car subway aircraft wheelchair scooter drone" speed="22.22" length="0.10" shape="1302.75,984.08 1302.75,984.08"/>
        <lane id=":10044284403_0_1" index="1" disallow="tram rail_urban rail rail_electric rail_fast ship container cable_car subway aircraft wheelchair scooter drone" speed="22.22" length="0.10" shape="1305.93,984.48 1305.93,984.48"/>
    </edge>
    <edge id=":10053271105_0" function="internal">
        <lane id=":10053271105_0_0" index="0" allow="pedestrian delivery bicycle" speed="5.56" length="9.41" shape="1055.18,1213.67 1054.02,1223.01"/>
    </edge>
    <edge id=":10053271105_1" function="internal">
        <lane id=":10053271105_1_0" index="0" allow="pedestrian delivery bicycle" speed="5.56" length="10.17" shape="1055.18,1213.67 1054.45,1216.35 1053.04,1218.16 1050.94,1219.10 1048.15,1219.16"/>
    </edge>
    <edge id=":10053271105_2" function="internal">
        <lane id=":10053271105_2_0" index="0" allow="pedestrian delivery bicycle" speed="3.65" length="4.67" shape="1055.18,1213.67 1054.24,1214.77 1053.40,1215.07 1052.65,1214.57 1052.00,1213.28"/>
    </edge>
    <edge id=":10053271105_3" function="internal">
        <lane id=":10053271105_3_0" index="0" allow="pedestrian delivery bicycle" speed="5.06" length="5.02" shape="1048.52,1215.99 1049.90,1215.95 1050.94,1215.49 1051.64,1214.60 1052.00,1213.28"/>
    </edge>
    <edge id=":10053271105_4" function="internal">
        <lane id=":10053271105_4_0" index="0" allow="pedestrian delivery bicycle" speed="5.56" length="10.19" shape="1048.52,1215.99 1051.22,1216.70 1053.04,1218.11 1053.97,1220.22 1054.02,1223.01"/>
    </edge>
    <edge id=":10053271105_5" function="internal">
        <lane id=":10053271105_5_0" index="0" allow="pedestrian delivery bicycle" speed="3.65" length="4.67" shape="1048.52,1215.99 1049.62,1216.92 1049.92,1217.76 1049.43,1218.51 1048.15,1219.16"/>
    </edge>
    <edge id=":10053271105_6" function="internal">
        <lane id=":10053271105_6_0" index="0" allow="pedestrian delivery bicycle" speed="5.03" length="5.01" shape="1050.85,1222.62 1050.82,1221.24 1050.37,1220.21 1049.47,1219.52 1048.15,1219.16"/>
    </edge>
    <edge id=":10053271105_7" function="internal">
        <lane id=":10053271105_7_0" index="0" allow="pedestrian delivery bicycle" speed="5.56" length="9.40" shape="1050.85,1222.62 1052.00,1213.28"/>
    </edge>
    <edge id=":10053271105_8" function="internal">
        <lane id=":10053271105_8_0" index="0" allow="pedestrian delivery bicycle" speed="3.65" length="4.67" shape="1050.85,1222.62 1051.79,1221.52 1052.63,1221.23 1053.38,1221.72 1054.02,1223.01"/>
    </edge>
    <edge id=":10053271106_0" function="internal">
        <lane id=":10053271106_0_0" index="0" allow="pedestrian delivery bicycle" speed="5.19" length="5.13" shape="1003.90,1213.92 1002.45,1213.94 1001.34,1214.37 1000.57,1215.23 1000.14,1216.51"/>
    </edge>
    <edge id=":10053271106_1" function="internal">
        <lane id=":10053271106_1_0" index="0" allow="pedestrian delivery bicycle" speed="5.56" length="10.26" shape="1003.90,1213.92 1001.17,1213.19 999.35,1211.77 998.43,1209.65 998.42,1206.83"/>
    </edge>
    <edge id=":10053271106_2" function="internal">
        <lane id=":10053271106_2_0" index="0" allow="pedestrian delivery bicycle" speed="3.65" length="4.67" shape="1003.90,1213.92 1002.80,1212.98 1002.50,1212.14 1002.99,1211.40 1004.27,1210.74"/>
    </edge>
    <edge id=":10053271106_3" function="internal">
        <lane id=":10053271106_3_0" index="0" allow="pedestrian delivery bicycle" speed="5.02" length="5.02" shape="1001.59,1207.27 1001.60,1208.65 1002.05,1209.69 1002.94,1210.39 1004.27,1210.74"/>
    </edge>
    <edge id=":10053271106_4" function="internal">
        <lane id=":10053271106_4_0" index="0" allow="pedestrian delivery bicycle" speed="5.56" length="9.35" shape="1001.59,1207.27 1000.14,1216.51"/>
    </edge>
    <edge id=":10053271106_5" function="internal">
        <lane id=":10053271106_5_0" index="0" allow="pedestrian delivery bicycle" speed="3.65" length="4.67" shape="1001.59,1207.27 1000.64,1208.35 999.79,1208.63 999.05,1208.13 998.42,1206.83"/>
    </edge>
    <edge id=":10053271106_6" function="internal">
        <lane id=":10053271106_6_0" index="0" allow="pedestrian delivery bicycle" speed="5.56" length="9.24" shape="996.99,1215.95 998.42,1206.83"/>
    </edge>
    <edge id=":10053271106_7" function="internal">
        <lane id=":10053271106_7_0" index="0" allow="pedestrian delivery bicycle" speed="5.56" length="10.09" shape="996.99,1215.95 997.84,1213.40 999.33,1211.68 1001.48,1210.79 1004.27,1210.74"/>
    </edge>
    <edge id=":10053271106_8" function="internal">
        <lane id=":10053271106_8_0" index="0" allow="pedestrian delivery bicycle" speed="3.65" length="4.67" shape="996.99,1215.95 997.99,1214.91 998.84,1214.65 999.56,1215.19 1000.14,1216.51"/>
    </edge>
    <edge id=":10053271107_0" function="internal">
        <lane id=":10053271107_0_0" index="0" allow="pedestrian delivery bicycle" speed="5.17" length="5.16" shape="1000.72,1232.31 999.26,1232.31 998.14,1232.74 997.36,1233.59 996.93,1234.87"/>
    </edge>
    <edge id=":10053271107_1" function="internal">
        <lane id=":10053271107_1_0" index="0" allow="pedestrian delivery bicycle" speed="5.56" length="10.36" shape="1000.72,1232.31 997.97,1231.54 996.17,1230.07 995.31,1227.91 995.40,1225.05"/>
    </edge>
    <edge id=":10053271107_2" function="internal">
        <lane id=":10053271107_2_0" index="0" allow="pedestrian delivery bicycle" speed="3.65" length="4.67" shape="1000.72,1232.31 999.64,1231.36 999.35,1230.52 999.85,1229.78 1001.14,1229.14"/>
    </edge>
    <edge id=":10053271107_3" function="internal">
        <lane id=":10053271107_3_0" index="0" allow="pedestrian delivery bicycle" speed="5.00" length="5.05" shape="998.55,1225.60 998.51,1227.00 998.93,1228.05 999.80,1228.76 1001.14,1229.14"/>
    </edge>
    <edge id=":10053271107_4" function="internal">
        <lane id=":10053271107_4_0" index="0" allow="pedestrian delivery bicycle" speed="5.56" length="9.41" shape="998.55,1225.60 996.93,1234.87"/>
    </edge>
    <edge id=":10053271107_5" function="internal">
        <lane id=":10053271107_5_0" index="0" allow="pedestrian delivery bicycle" speed="3.65" length="4.67" shape="998.55,1225.60 997.56,1226.65 996.70,1226.90 995.98,1226.37 995.40,1225.05"/>
    </edge>
    <edge id=":10053271107_6" function="internal">
        <lane id=":10053271107_6_0" index="0" allow="pedestrian delivery bicycle" speed="5.56" length="9.41" shape="993.78,1234.32 995.40,1225.05"/>
    </edge>
    <edge id=":10053271107_7" function="internal">
        <lane id=":10053271107_7_0" index="0" allow="pedestrian delivery bicycle" speed="5.56" length="10.18" shape="993.78,1234.32 994.63,1231.74 996.14,1230.02 998.31,1229.15 1001.14,1229.14"/>
    </edge>
    <edge id=":10053271107_8" function="internal">
        <lane id=":10053271107_8_0" index="0" allow="pedestrian delivery bicycle" speed="3.65" length="4.67" shape="993.78,1234.32 994.77,1233.28 995.63,1233.02 996.35,1233.55 996.93,1234.87"/>
    </edge>
    <edge id=":10053271110_0" function="internal">
        <lane id=":10053271110_0_0" index="0" allow="pedestrian delivery bicycle" speed="5.56" length="5.40" shape="1054.24,1199.06 1055.32,1199.96 1056.05,1201.03 1056.41,1202.27 1056.40,1203.68"/>
    </edge>
    <edge id=":10053271110_1" function="internal">
        <lane id=":10053271110_1_0" index="0" allow="pedestrian delivery bicycle" speed="3.99" length="1.80" shape="1053.23,1203.29 1053.23,1202.82 1053.11,1202.40 1052.87,1202.05 1052.51,1201.75"/>
    </edge>
    <edge id=":10053271112_0" function="internal">
        <lane id=":10053271112_0_0" index="0" allow="pedestrian delivery bicycle" speed="5.14" length="5.11" shape="1006.38,1196.40 1004.94,1196.44 1003.86,1196.90 1003.12,1197.78 1002.74,1199.08"/>
    </edge>
    <edge id=":10053271112_1" function="internal">
        <lane id=":10053271112_1_0" index="0" allow="pedestrian delivery bicycle" speed="5.56" length="10.29" shape="1006.38,1196.40 1003.64,1195.70 1001.80,1194.29 1000.87,1192.17 1000.84,1189.34"/>
    </edge>
    <edge id=":10053271112_2" function="internal">
        <lane id=":10053271112_2_0" index="0" allow="pedestrian delivery bicycle" speed="3.65" length="4.67" shape="1006.38,1196.40 1005.27,1195.48 1004.96,1194.64 1005.44,1193.89 1006.72,1193.22"/>
    </edge>
    <edge id=":10053271112_3" function="internal">
        <lane id=":10053271112_3_0" index="0" allow="pedestrian delivery bicycle" speed="5.01" length="5.03" shape="1004.01,1189.77 1004.02,1191.15 1004.48,1192.19 1005.38,1192.88 1006.72,1193.22"/>
    </edge>
    <edge id=":10053271112_4" function="internal">
        <lane id=":10053271112_4_0" index="0" allow="pedestrian delivery bicycle" speed="5.56" length="9.39" shape="1004.01,1189.77 1002.74,1199.08"/>
    </edge>
    <edge id=":10053271112_5" function="internal">
        <lane id=":10053271112_5_0" index="0" allow="pedestrian delivery bicycle" speed="3.65" length="4.67" shape="1004.01,1189.77 1003.06,1190.85 1002.21,1191.14 1001.47,1190.64 1000.84,1189.34"/>
    </edge>
    <edge id=":10053271112_6" function="internal">
        <lane id=":10053271112_6_0" index="0" allow="pedestrian delivery bicycle" speed="5.56" length="9.38" shape="999.57,1198.63 1000.84,1189.34"/>
    </edge>
    <edge id=":10053271112_7" function="internal">
        <lane id=":10053271112_7_0" index="0" allow="pedestrian delivery bicycle" speed="5.56" length="10.16" shape="999.57,1198.63 1000.34,1196.01 1001.78,1194.24 1003.91,1193.30 1006.72,1193.22"/>
    </edge>
    <edge id=":10053271112_8" function="internal">
        <lane id=":10053271112_8_0" index="0" allow="pedestrian delivery bicycle" speed="3.65" length="4.67" shape="999.57,1198.63 1000.53,1197.56 1001.38,1197.27 1002.11,1197.78 1002.74,1199.08"/>
    </edge>
    <edge id=":10053271114_0" function="internal">
        <lane id=":10053271114_0_0" index="0" disallow="tram rail_urban rail rail_electric rail_fast ship container cable_car subway aircraft wheelchair scooter drone" speed="13.89" length="9.84" shape="998.56,1243.92 988.82,1242.56"/>
    </edge>
    <edge id=":10053271114_1" function="internal">
        <lane id=":10053271114_1_0" index="0" allow="pedestrian delivery bicycle" speed="6.05" length="7.85" shape="998.56,1243.92 995.84,1243.33 993.98,1242.45 992.97,1241.29 992.82,1239.82"/>
    </edge>
    <edge id=":10053271114_2" function="internal">
        <lane id=":10053271114_2_0" index="0" allow="pedestrian delivery bicycle" speed="6.31" length="8.20" shape="995.98,1240.37 995.33,1241.67 993.92,1242.47 991.75,1242.77 988.82,1242.56"/>
    </edge>
    <edge id=":10053271114_3" function="internal">
        <lane id=":10053271114_3_0" index="0" allow="pedestrian delivery bicycle" speed="3.65" length="4.67" shape="995.98,1240.37 994.98,1241.42 994.13,1241.67 993.41,1241.14 992.82,1239.82"/>
    </edge>
    <edge id=":10053271115_0" function="internal">
        <lane id=":10053271115_0_0" index="0" disallow="tram rail_urban rail rail_electric rail_fast ship container cable_car subway aircraft wheelchair scooter drone" speed="13.89" length="9.38" shape="1442.43,931.64 1440.55,940.83"/>
    </edge>
    <edge id=":10053271115_1" function="internal">
        <lane id=":10053271115_1_0" index="0" disallow="tram rail_urban rail rail_electric rail_fast ship container cable_car subway aircraft wheelchair scooter drone" speed="6.22" length="7.81" shape="1442.43,931.64 1441.66,934.27 1440.68,936.08 1439.46,937.07 1438.03,937.24"/>
    </edge>
    <edge id=":10053271115_2" function="internal">
        <lane id=":10053271115_2_0" index="0" disallow="tram rail_urban rail rail_electric rail_fast ship container cable_car subway aircraft wheelchair scooter drone" speed="6.04" length="7.86" shape="1438.52,934.07 1439.86,934.69 1440.65,936.01 1440.88,938.06 1440.55,940.83"/>
    </edge>
    <edge id=":10053271115_3" function="internal">
        <lane id=":10053271115_3_0" index="0" disallow="tram rail_urban rail rail_electric rail_fast ship container cable_car subway aircraft wheelchair scooter drone" speed="3.65" length="4.67" shape="1438.52,934.07 1439.58,935.05 1439.86,935.90 1439.34,936.63 1438.03,937.24"/>
    </edge>
    <edge id=":10053271116_0" function="internal">
        <lane id=":10053271116_0_0" index="0" disallow="tram rail_urban rail rail_electric rail_fast ship container cable_car subway aircraft wheelchair scooter drone" speed="6.78" length="9.71" shape="1380.37,928.28 1377.79,928.27 1375.79,929.12 1374.36,930.84 1373.52,933.43"/>
    </edge>
    <edge id=":10053271116_1" function="internal">
        <lane id=":10053271116_1_0" index="0" disallow="tram rail_urban rail rail_electric rail_fast ship container cable_car subway aircraft wheelchair scooter drone" speed="20.84" length="15.20" shape="1380.37,928.28 1365.62,926.49"/>
        <lane id=":10053271116_1_1" index="1" disallow="tram rail_urban rail rail_electric rail_fast ship container cable_car subway aircraft wheelchair scooter drone" speed="20.84" length="15.20" shape="1380.37,928.28 1377.08,927.33 1374.07,925.89 1370.56,924.40 1365.74,923.28"/>
    </edge>
    <edge id=":10053271116_3" function="internal">
        <lane id=":10053271116_3_0" index="0" disallow="tram rail_urban rail rail_electric rail_fast ship container cable_car subway aircraft wheelchair scooter drone" speed="3.65" length="1.44" shape="1380.37,928.28 1379.31,927.31"/>
    </edge>
    <edge id=":10053271116_8" function="internal">
        <lane id=":10053271116_8_0" index="0" disallow="tram rail_urban rail rail_electric rail_fast ship container cable_car subway aircraft wheelchair scooter drone" speed="3.65" length="3.23" shape="1379.31,927.31 1379.04,926.46 1379.55,925.73 1380.86,925.12"/>
    </edge>
    <edge id=":10053271116_4" function="internal">
        <lane id=":10053271116_4_0" index="0" disallow="tram rail_urban rail rail_electric rail_fast ship container cable_car subway aircraft wheelchair scooter drone" speed="6.39" length="9.04" shape="1376.41,918.68 1376.25,921.17 1376.94,923.07 1378.48,924.39 1380.86,925.12"/>
    </edge>
    <edge id=":10053271116_5" function="internal">
        <lane id=":10053271116_5_0" index="0" disallow="tram rail_urban rail rail_electric rail_fast ship container cable_car subway aircraft wheelchair scooter drone" speed="22.22" length="15.07" shape="1376.41,918.68 1373.52,933.43"/>
        <lane id=":10053271116_5_1" index="1" disallow="tram rail_urban rail rail_electric rail_fast ship container cable_car subway aircraft wheelchair scooter drone" speed="22.22" length="15.07" shape="1373.28,918.02 1370.38,932.85"/>
    </edge>
    <edge id=":10053271116_7" function="internal">
        <lane id=":10053271116_7_0" index="0" disallow="tram rail_urban rail rail_electric rail_fast ship container cable_car subway aircraft wheelchair scooter drone" speed="7.09" length="10.33" shape="1373.28,918.02 1372.33,920.65 1370.75,922.40 1368.55,923.28 1365.74,923.28"/>
    </edge>
    <edge id=":10053295317_0" function="internal">
        <lane id=":10053295317_0_0" index="0" disallow="tram rail_urban rail rail_electric rail_fast ship container cable_car subway aircraft wheelchair scooter drone" speed="8.02" length="14.12" shape="1319.81,920.13 1316.08,919.07 1313.58,917.07 1312.29,914.15 1312.23,910.30"/>
        <lane id=":10053295317_0_1" index="1" disallow="tram rail_urban rail rail_electric rail_fast ship container cable_car subway aircraft wheelchair scooter drone" speed="6.53" length="9.01" shape="1320.25,916.96 1317.87,916.28 1316.27,915.01 1315.44,913.15 1315.40,910.70"/>
    </edge>
    <edge id=":10053295317_2" function="internal">
        <lane id=":10053295317_2_0" index="0" disallow="tram rail_urban rail rail_electric rail_fast ship container cable_car subway aircraft wheelchair scooter drone" speed="22.22" length="14.30" shape="1310.41,924.48 1312.23,910.30"/>
        <lane id=":10053295317_2_1" index="1" disallow="tram rail_urban rail rail_electric rail_fast ship container cable_car subway aircraft wheelchair scooter drone" speed="22.22" length="14.30" shape="1313.59,924.89 1315.40,910.70"/>
    </edge>
    <edge id=":10053559287_0" function="internal">
        <lane id=":10053559287_0_0" index="0" disallow="tram rail_urban rail rail_electric rail_fast ship container cable_car subway aircraft wheelchair scooter drone" speed="6.48" length="9.03" shape="1184.42,1095.07 1186.90,1095.06 1188.77,1094.26 1190.04,1092.66 1190.69,1090.27"/>
    </edge>
    <edge id=":10053559287_1" function="internal">
        <lane id=":10053559287_1_0" index="0" disallow="tram rail_urban rail rail_electric rail_fast ship container cable_car subway aircraft wheelchair scooter drone" speed="27.78" length="11.09" shape="1184.42,1095.07 1195.44,1096.78"/>
        <lane id=":10053559287_1_1" index="1" disallow="tram rail_urban rail rail_electric rail_fast ship container cable_car subway aircraft wheelchair scooter drone" speed="27.78" length="11.09" shape="1183.98,1098.24 1194.90,1099.93"/>
    </edge>
    <edge id=":10053559288_0" function="internal">
        <lane id=":10053559288_0_0" index="0" disallow="tram rail_urban rail rail_electric rail_fast ship container cable_car subway aircraft wheelchair scooter drone" speed="6.20" length="8.13" shape="1193.73,1126.45 1191.45,1126.46 1189.74,1127.17 1188.58,1128.57 1187.99,1130.67"/>
    </edge>
    <edge id=":10053559288_1" function="internal">
        <lane id=":10053559288_1_0" index="0" disallow="tram rail_urban rail rail_electric rail_fast ship container cable_car subway aircraft wheelchair scooter drone" speed="27.78" length="9.16" shape="1193.73,1126.45 1184.65,1125.25"/>
        <lane id=":10053559288_1_1" index="1" disallow="tram rail_urban rail rail_electric rail_fast ship container cable_car subway aircraft wheelchair scooter drone" speed="27.78" length="9.16" shape="1194.15,1123.28 1185.07,1122.07"/>
    </edge>
    <edge id=":103795194_0" function="internal">
        <lane id=":103795194_0_0" index="0" disallow="tram rail_urban rail rail_electric rail_fast ship container cable_car subway aircraft wheelchair scooter drone" speed="6.48" length="8.88" shape="1311.20,874.25 1314.33,874.45 1316.64,874.08 1318.13,873.15 1318.80,871.65"/>
    </edge>
    <edge id=":103795194_1" function="internal">
        <lane id=":103795194_1_0" index="0" disallow="tram rail_urban rail rail_electric rail_fast ship container cable_car subway aircraft wheelchair scooter drone" speed="22.22" length="14.37" shape="1311.20,874.25 1325.41,876.35"/>
    </edge>
    <edge id=":103795194_2" function="internal">
        <lane id=":103795194_2_0" index="0" disallow="tram rail_urban rail rail_electric rail_fast ship container cable_car subway aircraft wheelchair scooter drone" speed="22.22" length="9.46" shape="1315.98,880.64 1316.58,877.92 1317.36,876.14 1318.16,874.37 1318.80,871.65"/>
    </edge>
    <edge id=":103795194_3" function="internal">
        <lane id=":103795194_3_0" index="0" disallow="tram rail_urban rail rail_electric rail_fast ship container cable_car subway aircraft wheelchair scooter drone" speed="6.42" length="8.98" shape="1319.16,881.04 1319.81,878.66 1321.07,877.08 1322.94,876.31 1325.41,876.35"/>
    </edge>
    <edge id=":103795990_0" function="internal">
        <lane id=":103795990_0_0" index="0" disallow="tram rail_urban rail rail_electric rail_fast ship container cable_car subway aircraft wheelchair scooter drone" speed="6.48" length="9.03" shape="1406.62,1115.39 1406.59,1117.87 1407.36,1119.75 1408.94,1121.04 1411.32,1121.74"/>
    </edge>
    <edge id=":103795990_1" function="internal">
        <lane id=":103795990_1_0" index="0" disallow="tram rail_urban rail rail_electric rail_fast ship container cable_car subway aircraft wheelchair scooter drone" speed="3.65" length="1.44" shape="1406.62,1115.39 1405.64,1116.45"/>
    </edge>
    <edge id=":103795990_6" function="internal">
        <lane id=":103795990_6_0" index="0" disallow="tram rail_urban rail rail_electric rail_fast ship container cable_car subway aircraft wheelchair scooter drone" speed="3.65" length="3.23" shape="1405.64,1116.45 1404.79,1116.73 1404.06,1116.21 1403.46,1114.90"/>
    </edge>
    <edge id=":103795990_2" function="internal">
        <lane id=":103795990_2_0" index="0" disallow="tram rail_urban rail rail_electric rail_fast ship container cable_car subway aircraft wheelchair scooter drone" speed="6.55" length="9.09" shape="1397.06,1119.70 1399.53,1119.69 1401.42,1118.89 1402.73,1117.30 1403.46,1114.90"/>
    </edge>
    <edge id=":103795990_3" function="internal">
        <lane id=":103795990_3_0" index="0" disallow="tram rail_urban rail rail_electric rail_fast ship container cable_car subway aircraft wheelchair scooter drone" speed="27.78" length="14.40" shape="1397.06,1119.70 1411.32,1121.74"/>
        <lane id=":103795990_3_1" index="1" disallow="tram rail_urban rail rail_electric rail_fast ship container cable_car subway aircraft wheelchair scooter drone" speed="27.78" length="14.40" shape="1396.61,1122.87 1410.87,1124.90"/>