<?xml version='1.0' encoding='UTF-8'?>
<additional><taz id="DEPOT_1" color="98,189,239"><tazSource id="26242831#1" weight="1.0" /><tazSink id="26242831#1" weight="1.0" /></taz><taz id="DEPOT_2" color="98,189,239"><tazSource id="39169965#0" weight="1.0" /><tazSink id="39169965#0" weight="1.0" /></taz><taz id="PICKUP_1" color="226,39,246"><tazSource id="-26242831#0" weight="1.0" /><tazSink id="-26242831#0" weight="1.0" /></taz><taz id="PICKUP_2" color="226,39,246"><tazSource id="-39169965#0" weight="1.0" /><tazSink id="-39169965#0" weight="1.0" /></taz><taz id="PICKUP_3" color="226,39,246"><tazSource id="-26242831#1" weight="1.0" /><tazSink id="-26242831#1" weight="1.0" /></taz><taz id="PICKUP_4" color="226,39,246"><tazSource id="-100080974#0" weight="1.0" /><tazSink id="-100080974#0" weight="1.0" /></taz><taz id="PICKUP_5" color="226,39,246"><tazSource id="100080974#0" weight="1.0" /><tazSink id="100080974#0" weight="1.0" /></taz><taz id="DELIVERY_1" color="98,246,40"><tazSource id="672706112" weight="1.0" /><tazSink id="672706112" weight="1.0" /></taz><taz id="DELIVERY_2" color="98,246,40"><tazSource id="39169970#2" weight="1.0" /><tazSink id="39169970#2" weight="1.0" /></taz><taz id="DELIVERY_3" color="98,246,40"><tazSource id="-33803027#0" weight="1.0" /><tazSink id="-33803027#0" weight="1.0" /></taz><taz id="DELIVERY_4" color="98,246,40"><tazSource id="100081075#3" weight="1.0" /><tazSink id="100081075#3" weight="1.0" /></taz><taz id="DELIVERY_5" color="98,246,40"><tazSource id="100080970" weight="1.0" /><tazSink id="100080970" weight="1.0" /></taz><taz id="DELIVERY_6" color="98,246,40"><tazSource id="-100081149#1" weight="1.0" /><tazSink id="-100081149#1" weight="1.0" /></taz><taz id="DELIVERY_7" color="98,246,40"><tazSource id="26242831#2" weight="1.0" /><tazSink id="26242831#2" weight="1.0" /></taz><taz id="DELIVERY_8" color="98,246,40"><tazSource id="95132601#4" weight="1.0" /><tazSink id="95132601#4" weight="1.0" /></taz><taz id="DELIVERY_9" color="98,246,40"><tazSource id="39169965#1" weight="1.0" /><tazSink id="39169965#1" weight="1.0" /></taz><taz id="DELIVERY_10" color="98,246,40"><tazSource id="49001088#1" weight="1.0" /><tazSink id="49001088#1" weight="1.0" /></taz></additional>