<?xml version="1.0" encoding="UTF-8"?>

<configuration>
    <input>
        <net-file value="finished_map_cleaning.net.xml"/>
        <route-files value="tunis_final_traffic.rou.xml"/>
        <additional-files value="finished_cleaning_map.add.xml"/>
    </input>
    <time>
        <begin value="0"/>
        <end value="3600"/>
        <step-length value="1"/>
    </time>
    <processing>
        <time-to-teleport value="300"/>
    </processing>
</configuration>